
 ANSYS Academic Teaching Advanced                  


 *------------------------------------------------------------------*
 |                                                                  |
 |   W E L C O M E   T O   T H E   A N S Y S (R)  P R O G R A M     |
 |                                                                  |
 *------------------------------------------------------------------*




 ***************************************************************
 *            ANSYS 2019 R2          LEGAL NOTICES             *
 ***************************************************************
 *                                                             *
 * Copyright 1971-2019 ANSYS, Inc.  All rights reserved.       *
 * Unauthorized use, distribution or duplication is            *
 * prohibited.                                                 *
 *                                                             *
 * Ansys is a registered trademark of ANSYS, Inc. or its       *
 * subsidiaries in the United States or other countries.       *
 * See the ANSYS, Inc. online documentation or the ANSYS, Inc. *
 * documentation CD or online help for the complete Legal      *
 * Notice.                                                     *
 *                                                             *
 ***************************************************************
 *                                                             *
 * THIS ANSYS SOFTWARE PRODUCT AND PROGRAM DOCUMENTATION       *
 * INCLUDE TRADE SECRETS AND CONFIDENTIAL AND PROPRIETARY      *
 * PRODUCTS OF ANSYS, INC., ITS SUBSIDIARIES, OR LICENSORS.    *
 * The software products and documentation are furnished by    *
 * ANSYS, Inc. or its subsidiaries under a software license    *
 * agreement that contains provisions concerning               *
 * non-disclosure, copying, length and nature of use,          *
 * compliance with exporting laws, warranties, disclaimers,    *
 * limitations of liability, and remedies, and other           *
 * provisions.  The software products and documentation may be *
 * used, disclosed, transferred, or copied only in accordance  *
 * with the terms and conditions of that software license      *
 * agreement.                                                  *
 *                                                             *
 * ANSYS, Inc. is a UL registered                              *
 * ISO 9001:2015 company.                                      *
 *                                                             *
 ***************************************************************
 *                                                             *
 * This product is subject to U.S. laws governing export and   *
 * re-export.                                                  *
 *                                                             *
 * For U.S. Government users, except as specifically granted   *
 * by the ANSYS, Inc. software license agreement, the use,     *
 * duplication, or disclosure by the United States Government  *
 * is subject to restrictions stated in the ANSYS, Inc.        *
 * software license agreement and FAR 12.212 (for non-DOD      *
 * licenses).                                                  *
 *                                                             *
 ***************************************************************

 2019 R2 
     
 Point Releases and Patches installed:   
     
 ANSYS, Inc. Products 2019 R2
 SpaceClaim 2019 R2  
 AIM 2019 R2 
 Live (includes SpaceClaim) 2019 R2  
 Autodyn 2019 R2 
 CFD-Post only 2019 R2   
 CFX (includes CFD-Post) 2019 R2 
 Chemkin 2019 R2 
 FENSAP-ICE 2019 R2  
 Fluent (includes CFD-Post) 2019 R2  
 Forte 2019 R2   
 Polyflow (includes CFD-Post) 2019 R2
 TurboGrid 2019 R2   
 ICEM CFD 2019 R2
 Aqwa 2019 R2
 Customization Files for User Programmable Features 2019 R2  
 Mechanical Products 2019 R2 
 Additive 2019 R2
 Icepak (includes CFD-Post) 2019 R2  
 Viewer 2019 R2  
 AutoCAD Geometry Interface 2019 R2  
 SOLIDWORKS Geometry Interface 2019 R2   
 ANSYS, Inc. License Manager 2019 R2 


          *****  ANSYS COMMAND LINE ARGUMENTS  *****
  INITIAL JOBNAME              = impressionist.VC                                                                                                                                                                                                                                        
  DISTRIBUTED MEMORY PARALLEL REQUESTED
       2 PARALLEL PROCESSES REQUESTED WITH SINGLE THREAD PER PROCESS
    TOTAL OF     2 CORES REQUESTED
  MPI OPTION                   = INTELMPI
  START-UP FILE MODE           = READ  
  STOP FILE MODE               = READ  
  MODEL FILE NAME              = \\VDIDRIVE\MYHOME\sliangal\COMP4411\ImpSkelS20\impressionist.VC.db                                                                                                                                                                                                  
  GRAPHICS DEVICE REQUESTED    = win32   
  GRAPHICAL ENTRY              = YES   
  LANGUAGE                     = en-us               
  INITIAL DIRECTORY = \\VDIDRIVE\MYHOME\sliangal\COMP4411\ImpSkelS20

 RELEASE= 2019 R2              BUILD= 19.4      UP20190416   VERSION=WINDOWS x64 
 CURRENT JOBNAME=impressionist.VC1  16:35:32  FEB 01, 2021 CP=      0.031


 RESUME ANSYS DATA FROM FILE NAME=\\VDIDRIVE\MYHOME\sliangal\COMP4411\ImpSkelS20\impressionist.VC.db                                                                                                                                                                                                  

 *** ERROR ***                           CP =       0.891   TIME= 16:35:33
 Data file \\VDIDRIVE\MYHOME\sliangal\COMP4411\ImpSkelS20\impressionist.V
 C.db has incorrect format, is missing READ/WRITE permission, or is      
 empty for RESUME.                                                       
